*SPEF "ieee 1481-1999"
*DESIGN "tt_um_revenantx86_tinytpu"
*DATE "05:26:39 Sunday October 27, 2024"
*VENDOR "The OpenROAD Project"
*PROGRAM "OpenROAD"
*VERSION "b16bda7e82721d10566ff7e2b68f1ff0be9f9e38"
*DESIGN_FLOW "NAME_SCOPE LOCAL" "PIN_CAP NONE"
*DIVIDER /
*DELIMITER :
*BUS_DELIMITER []
*T_UNIT 1 NS
*C_UNIT 1 PF
*R_UNIT 1 OHM
*L_UNIT 1 HENRY

*NAME_MAP
*3 clk
*4 ena
*5 rst_n
*6 ui_in[0]
*7 ui_in[1]
*8 ui_in[2]
*9 ui_in[3]
*10 ui_in[4]
*11 ui_in[5]
*12 ui_in[6]
*13 ui_in[7]
*14 uio_in[0]
*15 uio_in[1]
*16 uio_in[2]
*17 uio_in[3]
*18 uio_in[4]
*19 uio_in[5]
*20 uio_in[6]
*21 uio_in[7]
*22 net158
*23 net159
*24 net160
*25 net161
*26 net162
*27 net163
*28 net164
*29 net165
*30 net166
*31 net167
*32 net168
*33 net169
*34 net170
*35 net171
*36 net172
*37 net173
*38 uo_out[0]
*39 uo_out[1]
*40 net174
*41 net175
*42 net176
*43 net177
*44 net178
*45 net179
*46 _0000_
*47 _0001_
*48 _0002_
*49 _0003_
*50 _0004_
*51 _0005_
*52 _0006_
*53 _0007_
*54 _0008_
*55 _0009_
*56 _0010_
*57 _0011_
*58 _0012_
*59 _0014_
*60 _0015_
*61 _0016_
*62 _0017_
*63 _0018_
*64 _0019_
*65 _0020_
*66 _0021_
*67 _0022_
*68 _0023_
*69 _0024_
*70 _0025_
*71 _0026_
*72 _0027_
*73 _0028_
*74 _0029_
*75 _0031_
*76 _0032_
*77 _0033_
*78 _0034_
*79 _0035_
*80 _0036_
*81 _0037_
*82 _0038_
*83 _0039_
*84 _0040_
*85 _0041_
*86 _0042_
*87 _0043_
*88 _0044_
*89 _0045_
*90 _0046_
*91 _0047_
*92 _0048_
*93 _0049_
*94 _0050_
*95 _0051_
*96 _0052_
*97 _0053_
*98 _0054_
*99 _0055_
*100 _0056_
*101 _0057_
*102 _0058_
*103 _0059_
*104 _0060_
*105 _0061_
*106 _0062_
*107 _0063_
*108 _0064_
*109 _0065_
*110 _0066_
*111 _0067_
*112 _0068_
*113 _0069_
*114 _0070_
*115 _0071_
*116 _0072_
*117 _0073_
*118 _0074_
*119 _0075_
*120 _0076_
*121 _0077_
*122 _0078_
*123 _0079_
*124 _0080_
*125 _0081_
*126 _0082_
*127 _0083_
*128 _0084_
*129 _0085_
*130 _0086_
*131 _0087_
*132 _0088_
*133 _0089_
*134 _0090_
*135 _0091_
*136 _0092_
*137 _0093_
*138 _0094_
*139 _0095_
*140 _0096_
*141 _0097_
*142 _0098_
*143 _0099_
*144 _0100_
*145 _0101_
*146 _0102_
*147 _0103_
*148 _0104_
*149 _0105_
*150 _0106_
*151 _0107_
*152 _0108_
*153 _0109_
*154 _0110_
*155 _0111_
*156 _0112_
*157 _0113_
*158 _0114_
*159 _0115_
*160 _0116_
*161 _0117_
*162 _0118_
*163 _0119_
*164 _0120_
*165 _0121_
*166 _0122_
*167 _0123_
*168 _0124_
*169 _0125_
*170 _0126_
*171 _0127_
*172 _0128_
*173 _0129_
*174 _0130_
*175 _0131_
*176 _0132_
*177 _0133_
*178 _0134_
*179 _0135_
*180 _0136_
*181 _0137_
*182 _0138_
*183 _0139_
*184 _0140_
*185 _0141_
*186 _0142_
*187 _0143_
*188 _0144_
*189 _0145_
*190 _0146_
*191 _0147_
*192 _0148_
*193 _0149_
*194 _0150_
*195 _0151_
*196 _0152_
*197 _0153_
*198 _0154_
*199 _0155_
*200 _0156_
*201 _0157_
*202 _0158_
*203 _0159_
*204 _0160_
*205 _0161_
*206 _0162_
*207 _0163_
*208 _0164_
*209 _0165_
*210 _0166_
*211 _0167_
*212 _0168_
*213 _0169_
*214 _0170_
*215 _0171_
*216 _0172_
*217 _0173_
*218 _0174_
*219 _0175_
*220 _0176_
*221 _0177_
*222 _0178_
*223 _0179_
*224 _0180_
*225 _0181_
*226 _0182_
*227 _0183_
*228 _0184_
*229 _0185_
*230 _0186_
*231 _0187_
*232 _0188_
*233 _0189_
*234 _0190_
*235 _0191_
*236 _0192_
*237 _0193_
*238 _0194_
*239 _0195_
*240 _0196_
*241 _0197_
*242 _0198_
*243 _0199_
*244 _0200_
*245 _0201_
*246 _0202_
*247 _0203_
*248 _0204_
*249 _0205_
*250 _0206_
*251 _0207_
*252 _0208_
*253 _0209_
*254 _0210_
*255 _0211_
*256 _0212_
*257 _0213_
*258 _0214_
*259 _0215_
*260 _0216_
*261 _0217_
*262 _0218_
*263 _0219_
*264 _0220_
*265 _0221_
*266 _0222_
*267 _0223_
*268 _0224_
*269 _0225_
*270 _0226_
*271 _0227_
*272 _0228_
*273 _0229_
*274 _0230_
*275 _0231_
*276 _0232_
*277 _0233_
*278 _0234_
*279 _0235_
*280 _0236_
*281 _0237_
*282 _0238_
*283 _0239_
*284 _0240_
*285 _0241_
*286 _0242_
*287 _0243_
*288 _0244_
*289 _0245_
*290 _0246_
*291 _0247_
*292 _0248_
*293 _0249_
*294 _0250_
*295 _0251_
*296 _0252_
*297 _0253_
*298 _0254_
*299 _0255_
*300 _0256_
*301 _0257_
*302 _0258_
*303 _0259_
*304 _0260_
*305 _0261_
*306 _0262_
*307 _0263_
*308 _0264_
*309 _0265_
*310 _0266_
*311 _0267_
*312 _0268_
*313 _0269_
*314 _0270_
*315 _0271_
*316 _0272_
*317 _0273_
*318 _0274_
*319 _0275_
*320 _0276_
*321 _0277_
*322 _0278_
*323 _0279_
*324 _0280_
*325 _0281_
*326 _0282_
*327 _0283_
*328 _0284_
*329 _0285_
*330 _0286_
*331 _0287_
*332 _0288_
*333 _0289_
*334 _0290_
*335 _0291_
*336 _0292_
*337 _0293_
*338 _0294_
*339 _0295_
*340 _0296_
*341 _0297_
*342 _0298_
*343 _0299_
*344 _0300_
*345 _0301_
*346 _0302_
*347 _0303_
*348 _0304_
*349 _0305_
*350 _0306_
*351 _0307_
*352 _0308_
*353 _0309_
*354 _0310_
*355 _0311_
*356 _0312_
*357 _0313_
*358 _0314_
*359 _0315_
*360 _0316_
*361 _0317_
*362 _0318_
*363 _0319_
*364 _0320_
*365 _0321_
*366 _0322_
*367 _0323_
*368 _0324_
*369 _0325_
*370 _0326_
*371 _0327_
*372 _0328_
*373 _0329_
*374 _0330_
*375 _0331_
*376 _0332_
*377 _0333_
*378 _0334_
*379 _0335_
*380 _0336_
*381 _0337_
*382 _0338_
*383 _0339_
*384 _0340_
*385 _0341_
*386 _0342_
*387 _0343_
*388 _0344_
*389 _0345_
*390 _0346_
*391 _0347_
*392 _0348_
*393 _0349_
*394 _0350_
*395 _0351_
*396 _0352_
*397 _0353_
*398 _0354_
*399 _0355_
*400 _0356_
*401 _0357_
*402 _0358_
*403 _0359_
*404 _0360_
*405 _0361_
*406 _0362_
*407 _0363_
*408 _0364_
*409 _0365_
*410 _0366_
*411 _0367_
*412 _0368_
*413 _0369_
*414 _0370_
*415 _0371_
*416 _0372_
*417 _0373_
*418 _0374_
*419 _0375_
*420 _0376_
*421 _0377_
*422 _0378_
*423 _0379_
*424 _0380_
*425 _0381_
*426 _0382_
*427 _0383_
*428 _0384_
*429 _0385_
*430 _0386_
*431 _0387_
*432 _0388_
*433 _0389_
*434 _0390_
*435 _0391_
*436 _0392_
*437 _0393_
*438 _0394_
*439 _0395_
*440 _0396_
*441 _0397_
*442 _0398_
*443 _0399_
*444 _0400_
*445 _0401_
*446 _0402_
*447 _0403_
*448 _0404_
*449 _0405_
*450 _0406_
*451 _0407_
*452 _0408_
*453 _0409_
*454 _0410_
*455 _0411_
*456 _0412_
*457 _0413_
*458 _0414_
*459 _0415_
*460 _0416_
*461 _0417_
*462 _0418_
*463 _0419_
*464 _0420_
*465 _0421_
*466 _0422_
*467 _0423_
*468 _0424_
*469 _0425_
*470 _0426_
*471 _0427_
*472 _0428_
*473 _0429_
*474 _0430_
*475 _0431_
*476 _0432_
*477 _0433_
*478 _0434_
*479 _0435_
*480 _0436_
*481 _0437_
*482 _0438_
*483 _0439_
*484 _0440_
*485 _0441_
*486 _0442_
*487 _0443_
*488 _0444_
*489 _0445_
*490 _0446_
*491 _0447_
*492 _0448_
*493 _0449_
*494 _0450_
*495 _0451_
*496 _0452_
*497 _0453_
*498 _0454_
*499 _0455_
*500 _0456_
*501 _0457_
*502 _0458_
*503 _0459_
*504 _0460_
*505 _0461_
*506 _0462_
*507 _0463_
*508 _0464_
*509 _0465_
*510 _0466_
*511 _0467_
*512 _0468_
*513 _0469_
*514 _0470_
*515 _0471_
*516 _0472_
*517 _0473_
*518 _0474_
*519 _0475_
*520 _0476_
*521 _0477_
*522 _0478_
*523 _0479_
*524 _0480_
*525 _0481_
*526 _0482_
*527 _0483_
*528 _0484_
*529 _0485_
*530 _0486_
*531 _0487_
*532 _0488_
*533 _0489_
*534 _0490_
*535 _0491_
*536 _0492_
*537 _0493_
*538 _0494_
*539 _0495_
*540 _0496_
*541 _0497_
*542 _0498_
*543 _0499_
*544 _0500_
*545 _0501_
*546 _0502_
*547 _0503_
*548 _0504_
*549 _0505_
*550 _0506_
*551 _0507_
*552 _0508_
*553 _0509_
*554 _0510_
*555 _0511_
*556 _0512_
*557 _0513_
*558 _0514_
*559 _0515_
*560 _0516_
*561 _0517_
*562 _0518_
*563 _0519_
*564 _0520_
*565 _0521_
*566 _0522_
*567 _0523_
*568 _0524_
*569 _0525_
*570 _0526_
*571 _0527_
*572 _0528_
*573 _0529_
*574 _0530_
*575 _0531_
*576 _0532_
*577 _0533_
*578 _0534_
*579 _0535_
*580 _0536_
*581 _0537_
*582 _0538_
*583 _0539_
*584 _0540_
*585 _0541_
*586 _0542_
*587 _0543_
*588 _0544_
*589 _0545_
*590 _0546_
*591 _0547_
*592 _0548_
*593 _0549_
*594 _0550_
*595 _0551_
*596 _0552_
*597 _0553_
*598 _0554_
*599 _0555_
*600 _0556_
*601 _0557_
*602 _0558_
*603 _0559_
*604 _0560_
*605 _0561_
*606 _0562_
*607 _0563_
*608 _0564_
*609 _0565_
*610 _0566_
*611 _0567_
*612 _0568_
*613 _0569_
*614 _0570_
*615 _0571_
*616 _0572_
*617 _0573_
*618 _0574_
*619 _0575_
*620 _0576_
*621 _0577_
*622 _0578_
*623 _0579_
*624 _0580_
*625 _0581_
*626 _0582_
*627 _0583_
*628 _0584_
*629 _0585_
*630 _0586_
*631 _0587_
*632 _0588_
*633 _0589_
*634 _0590_
*635 _0591_
*636 _0592_
*637 _0593_
*638 _0594_
*639 _0595_
*640 _0596_
*641 _0597_
*642 _0598_
*643 _0599_
*644 _0600_
*645 _0601_
*646 _0602_
*647 _0603_
*648 _0604_
*649 _0605_
*650 _0606_
*651 _0607_
*652 _0608_
*653 _0609_
*654 _0610_
*655 _0611_
*656 _0612_
*657 _0613_
*658 _0614_
*659 _0615_
*660 _0616_
*661 _0617_
*662 _0618_
*663 _0619_
*664 _0620_
*665 _0621_
*666 _0622_
*667 _0623_
*668 _0624_
*669 _0625_
*670 _0626_
*671 _0627_
*672 _0628_
*673 _0629_
*674 _0630_
*675 _0631_
*676 _0632_
*677 _0633_
*678 _0634_
*679 _0635_
*680 _0636_
*681 _0637_
*682 _0638_
*683 _0639_
*684 _0640_
*685 _0641_
*686 _0642_
*687 _0643_
*688 _0644_
*689 _0645_
*690 _0646_
*691 _0647_
*692 _0648_
*693 _0649_
*694 _0650_
*695 _0651_
*696 _0652_
*697 _0653_
*698 _0654_
*699 _0655_
*700 _0656_
*701 _0657_
*702 _0658_
*703 _0659_
*704 _0660_
*705 _0661_
*706 _0662_
*707 _0663_
*708 _0664_
*709 _0665_
*710 _0666_
*711 _0667_
*712 _0668_
*713 _0669_
*714 _0670_
*715 _0671_
*716 _0672_
*717 _0673_
*718 _0674_
*719 _0675_
*720 _0676_
*721 _0677_
*722 _0678_
*723 _0679_
*724 _0680_
*725 _0681_
*726 _0682_
*727 _0683_
*728 _0684_
*729 _0685_
*730 _0686_
*731 _0687_
*732 _0688_
*733 _0689_
*734 _0690_
*735 _0691_
*736 _0692_
*737 _0693_
*738 _0694_
*739 _0695_
*740 _0696_
*741 _0697_
*742 _0698_
*743 _0699_
*744 _0700_
*745 _0701_
*746 _0702_
*747 _0703_
*748 _0704_
*749 _0705_
*750 _0706_
*751 _0707_
*752 _0708_
*753 _0709_
*754 _0710_
*755 _0711_
*756 _0712_
*757 _0713_
*758 _0714_
*759 _0715_
*760 _0716_
*761 _0717_
*762 _0718_
*763 _0719_
*764 _0720_
*765 _0721_
*766 _0722_
*767 _0723_
*768 _0724_
*769 _0725_
*770 _0726_
*771 _0727_
*772 _0728_
*773 _0729_
*774 _0730_
*775 _0731_
*776 _0732_
*777 _0733_
*778 _0734_
*779 _0735_
*780 _0736_
*781 _0737_
*782 _0738_
*783 _0739_
*784 _0740_
*785 _0741_
*786 _0742_
*787 _0743_
*788 _0744_
*789 _0745_
*790 _0746_
*791 _0747_
*792 _0748_
*793 _0749_
*794 _0750_
*795 _0751_
*796 _0752_
*797 _0753_
*798 _0754_
*799 _0755_
*800 _0756_
*801 _0757_
*802 _0758_
*803 _0759_
*804 _0760_
*805 _0761_
*806 _0762_
*807 _0763_
*808 _0764_
*809 _0765_
*810 _0766_
*811 _0767_
*812 _0768_
*813 _0769_
*814 _0770_
*815 _0771_
*816 _0772_
*817 _0773_
*818 _0774_
*819 _0775_
*820 _0776_
*821 _0777_
*822 _0778_
*823 _0779_
*824 _0780_
*825 _0781_
*826 _0782_
*827 _0783_
*828 _0784_
*829 _0785_
*830 _0786_
*831 _0787_
*832 _0788_
*833 _0789_
*834 _0790_
*835 _0791_
*836 _0792_
*837 _0793_
*838 _0794_
*839 _0795_
*840 _0796_
*841 _0797_
*842 _0798_
*843 _0799_
*844 _0800_
*845 _0801_
*846 _0802_
*847 _0803_
*848 _0804_
*849 _0805_
*850 _0806_
*851 _0807_
*852 _0808_
*853 _0809_
*854 _0810_
*855 _0811_
*856 _0812_
*857 _0813_
*858 _0814_
*859 _0815_
*860 _0816_
*861 _0817_
*862 _0818_
*863 _0819_
*864 _0820_
*865 _0821_
*866 _0822_
*867 _0823_
*868 _0824_
*869 _0825_
*870 _0826_
*871 _0827_
*872 _0828_
*873 _0829_
*874 _0830_
*875 _0831_
*876 _0832_
*877 _0833_
*878 _0834_
*879 _0835_
*880 _0836_
*881 _0837_
*882 _0838_
*883 _0839_
*884 _0840_
*885 _0841_
*886 _0842_
*887 _0843_
*888 _0844_
*889 _0845_
*890 _0846_
*891 _0847_
*892 _0848_
*893 _0849_
*894 _0850_
*895 _0851_
*896 _0852_
*897 _0853_
*898 _0854_
*899 _0855_
*900 _0856_
*901 _0857_
*902 _0858_
*903 _0859_
*904 _0860_
*905 _0861_
*906 _0862_
*907 _0863_
*908 _0864_
*909 _0865_
*910 _0866_
*911 _0867_
*912 _0868_
*913 _0869_
*914 _0870_
*915 _0871_
*916 _0872_
*917 _0873_
*918 _0874_
*919 _0875_
*920 _0876_
*921 _0877_
*922 _0878_
*923 _0879_
*924 _0880_
*925 _0881_
*926 _0882_
*927 _0883_
*928 _0884_
*929 _0885_
*930 _0886_
*931 _0887_
*932 _0888_
*933 _0889_
*934 _0890_
*935 _0891_
*936 _0892_
*937 _0893_
*938 _0894_
*939 _0895_
*940 _0896_
*941 _0897_
*942 _0898_
*943 _0899_
*944 _0900_
*945 _0901_
*946 _0902_
*947 _0903_
*948 _0904_
*949 _0905_
*950 _0906_
*951 _0907_
*952 _0908_
*953 _0909_
*954 _0910_
*955 _0911_
*956 _0912_
*957 _0913_
*958 _0914_
*959 _0915_
*960 _0916_
*961 _0917_
*962 _0918_
*963 _0919_
*964 _0920_
*965 _0921_
*966 _0922_
*967 _0923_
*968 _0924_
*969 _0925_
*970 _0926_
*971 _0927_
*972 _0928_
*973 _0929_
*974 _0930_
*975 _0931_
*976 _0932_
*977 _0933_
*978 _0934_
*979 _0935_
*980 _0936_
*981 _0937_
*982 _0938_
*983 _0939_
*984 _0940_
*985 _0941_
*986 _0942_
*987 _0943_
*988 _0944_
*989 _0945_
*990 _0946_
*991 _0947_
*992 _0948_
*993 _0949_
*994 _0950_
*995 _0951_
*996 _0952_
*997 _0953_
*998 _0954_
*999 _0955_
*1000 _0956_
*1001 _0957_
*1002 _0958_
*1003 _0959_
*1004 _0960_
*1005 _0961_
*1006 _0962_
*1007 _0963_
*1008 _0964_
*1009 _0965_
*1010 _0966_
*1011 _0967_
*1012 _0968_
*1013 _0969_
*1014 _0970_
*1015 _0971_
*1016 _0972_
*1017 _0973_
*1018 _0974_
*1019 _0975_
*1020 _0976_
*1021 _0977_
*1022 _0978_
*1023 _0979_
*1024 _0980_
*1025 _0981_
*1026 _0982_
*1027 _0983_
*1028 _0984_
*1029 _0985_
*1030 _0986_
*1031 _0987_
*1032 _0988_
*1033 _0989_
*1034 _0990_
*1035 _0991_
*1036 _0992_
*1037 _0993_
*1038 _0994_
*1039 _0995_
*1040 _0996_
*1041 _0997_
*1042 _0998_
*1043 _0999_
*1044 _1000_
*1045 _1001_
*1046 _1002_
*1047 _1003_
*1048 _1004_
*1049 _1005_
*1050 _1006_
*1051 _1007_
*1052 _1008_
*1053 _1009_
*1054 _1010_
*1055 _1011_
*1056 _1012_
*1057 _1013_
*1058 _1014_
*1059 _1015_
*1060 _1016_
*1061 _1017_
*1062 _1018_
*1063 _1019_
*1064 _1020_
*1065 _1021_
*1066 _1022_
*1067 _1023_
*1068 _1024_
*1069 _1025_
*1070 _1026_
*1071 _1027_
*1072 _1028_
*1073 _1029_
*1074 _1030_
*1075 _1031_
*1076 _1032_
*1077 _1033_
*1078 _1034_
*1079 _1035_
*1080 _1036_
*1081 _1037_
*1082 _1038_
*1083 _1039_
*1084 _1040_
*1085 _1041_
*1086 _1042_
*1087 _1043_
*1088 _1044_
*1089 _1045_
*1090 _1046_
*1091 _1047_
*1092 _1048_
*1093 _1049_
*1094 _1050_
*1095 _1051_
*1096 _1052_
*1097 _1053_
*1098 _1054_
*1099 _1055_
*1100 _1056_
*1101 _1057_
*1102 _1058_
*1103 _1059_
*1104 _1060_
*1105 _1061_
*1106 _1062_
*1107 _1063_
*1108 _1064_
*1109 _1065_
*1110 _1066_
*1111 _1067_
*1112 _1068_
*1113 _1069_
*1114 _1070_
*1115 _1071_
*1116 _1072_
*1117 _1073_
*1118 _1074_
*1119 _1075_
*1120 _1076_
*1121 _1077_
*1122 _1078_
*1123 _1079_
*1124 _1080_
*1125 _1081_
*1126 _1082_
*1127 _1083_
*1128 _1084_
*1129 _1085_
*1130 _1086_
*1131 _1087_
*1132 _1088_
*1133 _1089_
*1134 _1090_
*1135 _1091_
*1136 _1092_
*1137 _1093_
*1138 _1094_
*1139 _1095_
*1140 _1096_
*1141 _1097_
*1142 _1098_
*1143 _1099_
*1144 _1100_
*1145 _1101_
*1146 _1102_
*1147 _1103_
*1148 _1104_
*1149 _1105_
*1150 _1106_
*1151 _1107_
*1152 _1108_
*1153 _1109_
*1154 _1110_
*1155 _1111_
*1156 _1112_
*1157 _1113_
*1158 _1114_
*1159 _1115_
*1160 _1116_
*1161 _1117_
*1162 _1118_
*1163 _1119_
*1164 _1120_
*1165 _1121_
*1166 _1122_
*1167 _1123_
*1168 _1124_
*1169 _1125_
*1170 _1126_
*1171 _1127_
*1172 _1128_
*1173 _1129_
*1174 _1130_
*1175 _1131_
*1176 _1132_
*1177 _1133_
*1178 _1134_
*1179 _1135_
*1180 _1136_
*1181 _1137_
*1182 _1138_
*1183 _1139_
*1184 _1140_
*1185 _1141_
*1186 _1142_
*1187 _1143_
*1188 _1144_
*1189 _1145_
*1190 _1146_
*1191 _1147_
*1192 _1148_
*1193 _1149_
*1194 _1150_
*1195 _1151_
*1196 _1152_
*1197 _1153_
*1198 _1154_
*1199 _1155_
*1200 _1156_
*1201 _1157_
*1202 _1158_
*1203 _1159_
*1204 _1160_
*1205 _1161_
*1206 _1162_
*1207 _1163_
*1208 _1164_
*1209 _1165_
*1210 _1166_
*1211 _1167_
*1212 _1168_
*1213 _1169_
*1214 _1170_
*1215 _1171_
*1216 _1172_
*1217 _1173_
*1218 _1174_
*1219 _1175_
*1220 _1176_
*1221 _1177_
*1222 _1178_
*1223 _1179_
*1224 _1180_
*1225 _1181_
*1226 _1182_
*1227 _1183_
*1228 _1184_
*1229 _1185_
*1230 _1186_
*1231 _1187_
*1232 _1188_
*1233 _1189_
*1234 _1190_
*1235 _1191_
*1236 _1192_
*1237 _1193_
*1238 _1194_
*1239 _1195_
*1240 _1196_
*1241 _1197_
*1242 _1198_
*1243 _1199_
*1244 _1200_
*1245 _1201_
*1246 _1202_
*1247 _1203_
*1248 _1204_
*1249 _1205_
*1250 _1206_
*1251 _1207_
*1252 _1208_
*1253 _1209_
*1254 _1210_
*1255 _1211_
*1256 _1212_
*1257 _1213_
*1258 _1214_
*1259 _1215_
*1260 _1216_
*1261 _1217_
*1262 _1218_
*1263 _1219_
*1264 _1220_
*1265 _1221_
*1266 _1222_
*1267 _1223_
*1268 _1224_
*1269 _1225_
*1270 _1226_
*1271 _1227_
*1272 _1228_
*1273 _1229_
*1274 _1230_
*1275 _1231_
*1276 _1232_
*1277 _1233_
*1278 _1234_
*1279 _1235_
*1280 _1236_
*1281 _1237_
*1282 _1238_
*1283 _1239_
*1284 _1240_
*1285 _1241_
*1286 _1242_
*1287 _1243_
*1288 _1244_
*1289 _1245_
*1290 _1246_
*1291 _1247_
*1292 _1248_
*1293 _1249_
*1294 _1250_
*1295 _1251_
*1296 _1252_
*1297 _1253_
*1298 _1254_
*1299 _1255_
*1300 _1256_
*1301 _1257_
*1302 _1258_
*1303 _1259_
*1304 _1260_
*1305 _1261_
*1306 _1262_
*1307 _1263_
*1308 _1264_
*1309 _1265_
*1310 _1266_
*1311 _1267_
*1312 _1268_
*1313 _1269_
*1314 _1270_
*1315 _1271_
*1316 _1272_
*1317 _1273_
*1318 _1274_
*1319 _1275_
*1320 _1276_
*1321 _1277_
*1322 _1278_
*1323 _1279_
*1324 _1280_
*1325 _1281_
*1326 _1282_
*1327 _1283_
*1328 _1284_
*1329 _1285_
*1330 _1286_
*1331 _1287_
*1332 _1288_
*1333 _1289_
*1334 _1290_
*1335 _1291_
*1336 _1292_
*1337 _1293_
*1338 _1294_
*1339 _1295_
*1340 _1296_
*1341 _1297_
*1342 _1298_
*1343 _1299_
*1344 _1300_
*1345 _1301_
*1346 _1302_
*1347 _1303_
*1348 _1304_
*1349 _1305_
*1350 _1306_
*1351 _1307_
*1352 _1308_
*1353 _1309_
*1354 _1310_
*1355 _1311_
*1356 _1312_
*1357 _1313_
*1358 _1314_
*1359 _1315_
*1360 _1316_
*1361 _1317_
*1362 _1318_
*1363 _1319_
*1364 _1320_
*1365 _1321_
*1366 _1322_
*1367 _1323_
*1368 _1324_
*1369 _1325_
*1370 _1326_
*1371 _1327_
*1372 _1328_
*1373 _1329_
*1374 _1330_
*1375 _1331_
*1376 _1332_
*1377 _1333_
*1378 _1334_
*1379 _1335_
*1380 _1336_
*1381 _1337_
*1382 _1338_
*1383 _1339_
*1384 _1340_
*1385 _1341_
*1386 _1342_
*1387 _1343_
*1388 _1344_
*1389 _1345_
*1390 _1346_
*1391 _1347_
*1392 _1348_
*1393 _1349_
*1394 _1350_
*1395 _1351_
*1396 _1352_
*1397 _1353_
*1398 _1354_
*1399 _1355_
*1400 _1356_
*1401 _1357_
*1402 _1358_
*1403 _1359_
*1404 _1360_
*1405 _1361_
*1406 _1362_
*1407 _1363_
*1408 _1364_
*1409 _1365_
*1410 _1366_
*1411 _1367_
*1412 _1368_
*1413 _1369_
*1414 _1370_
*1415 _1371_
*1416 _1372_
*1417 _1373_
*1418 _1374_
*1419 _1375_
*1420 _1376_
*1421 _1377_
*1422 _1378_
*1423 _1379_
*1424 _1380_
*1425 _1381_
*1426 _1382_
*1427 _1383_
*1428 _1384_
*1429 _1385_
*1430 _1386_
*1431 _1387_
*1432 _1388_
*1433 _1389_
*1434 _1390_
*1435 _1391_
*1436 _1392_
*1437 _1393_
*1438 _1394_
*1439 _1395_
*1440 _1396_
*1441 _1397_
*1442 _1398_
*1443 _1399_
*1444 _1400_
*1445 _1401_
*1446 _1402_
*1447 _1403_
*1448 _1404_
*1449 _1405_
*1450 _1406_
*1451 _1407_
*1452 _1408_
*1453 _1409_
*1454 _1410_
*1455 _1411_
*1456 _1412_
*1457 _1413_
*1458 _1414_
*1459 _1415_
*1460 _1416_
*1461 _1417_
*1462 _1418_
*1463 _1419_
*1464 _1420_
*1465 _1421_
*1466 _1422_
*1467 _1423_
*1468 _1424_
*1469 _1425_
*1470 _1426_
*1471 _1427_
*1472 _1428_
*1473 _1429_
*1474 _1430_
*1475 _1431_
*1476 _1432_
*1477 _1433_
*1478 _1434_
*1479 _1435_
*1480 _1436_
*1481 _1437_
*1482 _1438_
*1483 _1439_
*1484 _1440_
*1485 _1441_
*1486 _1442_
*1487 _1443_
*1488 _1444_
*1489 _1445_
*1490 _1446_
*1491 _1447_
*1492 _1448_
*1493 _1449_
*1494 _1450_
*1495 _1451_
*1496 _1452_
*1497 _1453_
*1498 _1454_
*1499 _1455_
*1500 _1456_
*1501 _1457_
*1502 _1458_
*1503 _1459_
*1504 _1460_
*1505 _1461_
*1506 _1462_
*1507 _1463_
*1508 _1464_
*1509 _1465_
*1510 _1466_
*1511 _1467_
*1512 _1468_
*1513 _1469_
*1514 _1470_
*1515 _1471_
*1516 _1472_
*1517 _1473_
*1518 _1474_
*1519 _1475_
*1520 _1476_
*1521 _1477_
*1522 _1478_
*1523 _1479_
*1524 _1480_
*1525 _1481_
*1526 _1482_
*1527 _1483_
*1528 _1484_
*1529 _1485_
*1530 _1486_
*1531 _1487_
*1532 _1488_
*1533 _1489_
*1534 _1490_
*1535 _1491_
*1536 _1492_
*1537 _1493_
*1538 _1494_
*1539 _1495_
*1540 _1496_
*1541 _1497_
*1542 _1498_
*1543 _1499_
*1544 _1500_
*1545 _1501_
*1546 _1502_
*1547 _1503_
*1548 _1504_
*1549 _1505_
*1550 _1506_
*1551 _1507_
*1552 _1508_
*1553 _1509_
*1554 _1510_
*1555 _1511_
*1556 _1512_
*1557 _1513_
*1558 _1514_
*1559 _1515_
*1560 _1516_
*1561 _1517_
*1562 _1518_
*1563 _1519_
*1564 _1520_
*1565 _1521_
*1566 _1522_
*1567 _1523_
*1568 _1524_
*1569 _1525_
*1570 _1526_
*1571 _1527_
*1572 _1528_
*1573 _1529_
*1574 _1530_
*1575 _1531_
*1576 _1532_
*1577 _1533_
*1578 _1534_
*1579 _1535_
*1580 _1536_
*1581 _1537_
*1582 _1538_
*1583 _1539_
*1584 _1540_
*1585 _1541_
*1586 _1542_
*1587 _1543_
*1588 _1544_
*1589 _1545_
*1590 _1546_
*1591 _1547_
*1592 _1548_
*1593 _1549_
*1594 _1550_
*1595 _1551_
*1596 _1552_
*1597 _1553_
*1598 _1554_
*1599 _1555_
*1600 _1556_
*1601 _1557_
*1602 _1558_
*1603 _1559_
*1604 _1560_
*1605 _1561_
*1606 _1562_
*1607 _1563_
*1608 _1564_
*1609 _1565_
*1610 _1566_
*1611 _1567_
*1612 _1568_
*1613 _1569_
*1614 _1570_
*1615 _1571_
*1616 _1572_
*1617 _1573_
*1618 _1574_
*1619 _1575_
*1620 _1576_
*1621 _1577_
*1622 _1578_
*1623 _1579_
*1624 _1580_
*1625 _1581_
*1626 _1582_
*1627 _1583_
*1628 _1584_
*1629 _1585_
*1630 _1586_
*1631 _1587_
*1632 _1588_
*1633 _1589_
*1634 _1590_
*1635 _1591_
*1636 _1592_
*1637 _1593_
*1638 _1594_
*1639 _1595_
*1640 _1596_
*1641 _1597_
*1642 _1598_
*1643 _1599_
*1644 _1600_
*1645 _1601_
*1646 _1602_
*1647 _1603_
*1648 _1604_
*1649 _1605_
*1650 _1606_
*1651 _1607_
*1652 _1608_
*1653 _1609_
*1654 _1610_
*1655 _1611_
*1656 _1612_
*1657 _1613_
*1658 _1614_
*1659 _1615_
*1660 _1616_
*1661 _1617_
*1662 _1618_
*1663 _1619_
*1664 _1620_
*1665 _1621_
*1666 _1622_
*1667 _1623_
*1668 _1624_
*1669 _1625_
*1670 _1626_
*1671 _1627_
*1672 _1628_
*1673 _1629_
*1674 _1630_
*1675 _1631_
*1676 _1632_
*1677 _1633_
*1678 _1634_
*1679 _1635_
*1680 _1636_
*1681 _1637_
*1682 _1638_
*1683 _1639_
*1684 _1640_
*1685 _1641_
*1686 _1642_
*1687 _1643_
*1688 _1644_
*1689 _1645_
*1690 _1646_
*1691 _1647_
*1692 _1648_
*1693 _1649_
*1694 _1650_
*1695 _1651_
*1696 _1652_
*1697 _1653_
*1698 _1654_
*1699 _1655_
*1700 _1656_
*1701 _1657_
*1702 _1658_
*1703 _1659_
*1704 _1660_
*1705 _1661_
*1706 _1662_
*1707 _1663_
*1708 _1664_
*1709 _1665_
*1710 _1666_
*1711 _1667_
*1712 _1668_
*1713 _1669_
*1714 _1670_
*1715 _1671_
*1716 _1672_
*1717 _1673_
*1718 _1674_
*1719 _1675_
*1720 _1676_
*1721 _1677_
*1722 _1678_
*1723 _1679_
*1724 _1680_
*1725 _1681_
*1726 _1682_
*1727 _1683_
*1728 _1684_
*1729 _1685_
*1730 _1686_
*1731 _1687_
*1732 _1688_
*1733 _1689_
*1734 _1690_
*1735 _1691_
*1736 _1692_
*1737 _1693_
*1738 _1694_
*1739 _1695_
*1740 _1696_
*1741 _1697_
*1742 _1698_
*1743 _1699_
*1744 _1700_
*1745 _1701_
*1746 _1702_
*1747 _1703_
*1748 _1704_
*1749 _1705_
*1750 _1706_
*1751 _1707_
*1752 _1708_
*1753 _1709_
*1754 _1710_
*1755 _1711_
*1756 _1712_
*1757 _1713_
*1758 _1714_
*1759 _1715_
*1760 _1716_
*1761 _1717_
*1762 _1718_
*1763 _1719_
*1764 _1720_
*1765 _1721_
*1766 _1722_
*1767 _1723_
*1768 _1724_
*1769 _1725_
*1770 _1726_
*1771 _1727_
*1772 _1728_
*1773 _1729_
*1774 _1730_
*1775 _1731_
*1776 _1732_
*1777 _1733_
*1778 _1734_
*1779 _1735_
*1780 _1736_
*1781 _1737_
*1782 _1738_
*1783 _1739_
*1784 _1740_
*1785 _1741_
*1786 _1742_
*1787 _1743_
*1788 _1744_
*1789 _1745_
*1790 _1746_
*1791 _1747_
*1792 _1748_
*1793 _1749_
*1794 _1750_
*1795 _1751_
*1796 _1752_
*1797 _1753_
*1798 _1754_
*1799 _1755_
*1800 _1756_
*1801 _1757_
*1802 _1758_
*1803 _1759_
*1804 _1760_
*1805 _1761_
*1806 _1762_
*1807 _1763_
*1808 _1764_
*1809 _1765_
*1810 _1766_
*1811 _1767_
*1812 _1768_
*1813 _1769_
*1814 _1770_
*1815 _1771_
*1816 _1772_
*1817 _1773_
*1818 _1774_
*1819 _1775_
*1820 _1776_
*1821 _1777_
*1822 _1778_
*1823 _1779_
*1824 _1780_
*1825 _1781_
*1826 _1782_
*1827 _1783_
*1828 _1784_
*1829 _1785_
*1830 _1786_
*1831 _1787_
*1832 _1788_
*1833 _1789_
*1834 _1790_
*1835 _1791_
*1836 _1792_
*1837 _1793_
*1838 _1794_
*1839 _1795_
*1840 _1796_
*1841 _1797_
*1842 _1798_
*1843 _1799_
*1844 _1800_
*1845 _1801_
*1846 _1802_
*1847 _1803_
*1848 _1804_
*1849 _1805_
*1850 _1806_
*1851 _1807_
*1852 _1808_
*1853 _1809_
*1854 _1810_
*1855 _1811_
*1856 _1812_
*1857 _1813_
*1858 _1814_
*1859 _1815_
*1860 _1816_
*1861 _1817_
*1862 _1818_
*1863 _1819_
*1864 _1820_
*1865 _1821_
*1866 _1822_
*1867 _1823_
*1868 _1824_
*1869 _1825_
*1870 _1826_
*1871 _1827_
*1872 _1828_
*1873 _1829_
*1874 _1830_
*1875 _1831_
*1876 _1832_
*1877 _1833_
*1878 _1834_
*1879 _1835_
*1880 _1836_
*1881 _1837_
*1882 _1838_
*1883 _1839_
*1884 _1840_
*1885 _1841_
*1886 _1842_
*1887 _1843_
*1888 _1844_
*1889 _1845_
*1890 _1846_
*1891 _1847_
*1892 _1848_
*1893 _1849_
*1894 _1850_
*1895 _1851_
*1896 _1852_
*1897 _1853_
*1898 _1854_
*1899 _1855_
*1900 _1856_
*1901 _1857_
*1902 _1858_
*1903 _1859_
*1904 _1860_
*1905 _1861_
*1906 _1862_
*1907 _1863_
*1908 _1864_
*1909 _1865_
*1910 _1866_
*1911 _1867_
*1912 _1868_
*1913 _1869_
*1914 _1870_
*1915 _1871_
*1916 _1872_
*1917 _1873_
*1918 _1874_
*1919 _1875_
*1920 _1876_
*1921 _1877_
*1922 _1878_
*1923 _1879_
*1924 _1880_
*1925 _1881_
*1926 _1882_
*1927 _1883_
*1928 _1884_
*1929 _1885_
*1930 _1886_
*1931 _1887_
*1932 clknet_0_clk
*1933 clknet_1_0__leaf_clk
*1934 clknet_1_1__leaf_clk
*1935 clknet_leaf_0_clk
*1936 clknet_leaf_10_clk
*1937 clknet_leaf_11_clk
*1938 clknet_leaf_12_clk
*1939 clknet_leaf_13_clk
*1940 clknet_leaf_14_clk
*1941 clknet_leaf_15_clk
*1942 clknet_leaf_16_clk
*1943 clknet_leaf_17_clk
*1944 clknet_leaf_18_clk
*1945 clknet_leaf_19_clk
*1946 clknet_leaf_1_clk
*1947 clknet_leaf_20_clk
*1948 clknet_leaf_2_clk
*1949 clknet_leaf_3_clk
*1950 clknet_leaf_4_clk
*1951 clknet_leaf_5_clk
*1952 clknet_leaf_6_clk
*1953 clknet_leaf_7_clk
*1954 clknet_leaf_8_clk
*1955 clknet_leaf_9_clk
*1956 net1
*1957 net10
*1958 net100
*1959 net101
*1960 net102
*1961 net103
*1962 net104
*1963 net105
*1964 net106
*1965 net107
*1966 net108
*1967 net109
*1968 net11
*1969 net110
*1970 net111
*1971 net112
*1972 net113
*1973 net114
*1974 net115
*1975 net116
*1976 net117
*1977 net118
*1978 net119
*1979 net12
*1980 net120
*1981 net121
*1982 net122
*1983 net123
*1984 net124
*1985 net125
*1986 net126
*1987 net127
*1988 net128
*1989 net129
*1990 net13
*1991 net130
*1992 net131
*1993 net132
*1994 net133
*1995 net134
*1996 net135
*1997 net136
*1998 net137
*1999 net138
*2000 net139
*2001 net14
*2002 net140
*2003 net141
*2004 net142
*2005 net143
*2006 net144
*2007 net145
*2008 net146
*2009 net147
*2010 net148
*2011 net149
*2012 net15
*2013 net150
*2014 net151
*2015 net152
*2016 net153
*2017 net154
*2018 net155
*2019 net156
*2020 net157
*2021 net16
*2022 net17
*2023 net18
*2024 net180
*2025 net181
*2026 net182
*2027 net183
*2028 net184
*2029 net185
*2030 net186
*2031 net187
*2032 net188
*2033 net189
*2034 net19
*2035 net190
*2036 net191
*2037 net192
*2038 net193
*2039 net194
*2040 net195
*2041 net196
*2042 net197
*2043 net198
*2044 net199
*2045 net2
*2046 net20
*2047 net200
*2048 net201
*2049 net202
*2050 net203
*2051 net204
*2052 net205
*2053 net206
*2054 net207
*2055 net208
*2056 net209
*2057 net21
*2058 net210
*2059 net211
*2060 net212
*2061 net213
*2062 net214
*2063 net215
*2064 net216
*2065 net217
*2066 net218
*2067 net219
*2068 net22
*2069 net220
*2070 net221
*2071 net222
*2072 net223
*2073 net224
*2074 net225
*2075 net226
*2076 net227
*2077 net228
*2078 net229
*2079 net23
*2080 net230
*2081 net231
*2082 net232
*2083 net233
*2084 net234
*2085 net235
*2086 net236
*2087 net237
*2088 net238
*2089 net239
*2090 net24
*2091 net240
*2092 net241
*2093 net242
*2094 net243
*2095 net244
*2096 net245
*2097 net246
*2098 net247
*2099 net248
*2100 net249
*2101 net25
*2102 net250
*2103 net251
*2104 net252
*2105 net253
*2106 net254
*2107 net255
*2108 net256
*2109 net257
*2110 net258
*2111 net259
*2112 net26
*2113 net260
*2114 net261
*2115 net262
*2116 net263
*2117 net264
*2118 net265
*2119 net266
*2120 net267
*2121 net268
*2122 net269
*2123 net27
*2124 net270
*2125 net271
*2126 net272
*2127 net273
*2128 net274
*2129 net275
*2130 net276
*2131 net277
*2132 net278
*2133 net279
*2134 net28
*2135 net280
*2136 net281
*2137 net282
*2138 net283
*2139 net284
*2140 net285
*2141 net286
*2142 net287
*2143 net288
*2144 net289
*2145 net29
*2146 net290
*2147 net291
*2148 net292
*2149 net293
*2150 net294
*2151 net295
*2152 net296
*2153 net297
*2154 net298
*2155 net299
*2156 net3
*2157 net30
*2158 net300
*2159 net301
*2160 net302
*2161 net303
*2162 net31
*2163 net32
*2164 net33
*2165 net34
*2166 net35
*2167 net36
*2168 net37
*2169 net38
*2170 net39
*2171 net4
*2172 net40
*2173 net41
*2174 net42
*2175 net43
*2176 net44
*2177 net45
*2178 net46
*2179 net47
*2180 net48
*2181 net49
*2182 net5
*2183 net50
*2184 net51
*2185 net52
*2186 net53
*2187 net54
*2188 net55
*2189 net56
*2190 net57
*2191 net58
*2192 net59
*2193 net6
*2194 net60
*2195 net61
*2196 net62
*2197 net63
*2198 net64
*2199 net65
*2200 net66
*2201 net67
*2202 net68
*2203 net69
*2204 net7
*2205 net70
*2206 net71
*2207 net72
*2208 net73
*2209 net74
*2210 net75
*2211 net76
*2212 net77
*2213 net78
*2214 net79
*2215 net8
*2216 net80
*2217 net81
*2218 net82
*2219 net83
*2220 net84
*2221 net85
*2222 net86
*2223 net87
*2224 net88
*2225 net89
*2226 net9
*2227 net90
*2228 net91
*2229 net92
*2230 net93
*2231 net94
*2232 net95
*2233 net96
*2234 net97
*2235 net98
*2236 net99
*2237 tinytpu_top_inst\.data_out_z
*2238 tinytpu_top_inst\.input_control_inst\.STATE\[0\]
*2239 tinytpu_top_inst\.input_control_inst\.STATE\[1\]
*2240 tinytpu_top_inst\.input_control_inst\.STATE\[2\]
*2241 tinytpu_top_inst\.input_control_inst\.addr_counter
*2242 tinytpu_top_inst\.input_control_inst\.bit_counter\[0\]
*2243 tinytpu_top_inst\.input_control_inst\.bit_counter\[1\]
*2244 tinytpu_top_inst\.input_control_inst\.bit_counter\[2\]
*2245 tinytpu_top_inst\.input_control_inst\.data_in_x_reg\[0\]
*2246 tinytpu_top_inst\.input_control_inst\.data_in_x_reg\[1\]
*2247 tinytpu_top_inst\.input_control_inst\.data_in_x_reg\[2\]
*2248 tinytpu_top_inst\.input_control_inst\.data_in_x_reg\[3\]
*2249 tinytpu_top_inst\.input_control_inst\.data_in_x_reg\[4\]
*2250 tinytpu_top_inst\.input_control_inst\.data_in_x_reg\[5\]
*2251 tinytpu_top_inst\.input_control_inst\.data_in_x_reg\[6\]
*2252 tinytpu_top_inst\.input_control_inst\.data_in_x_reg\[7\]
*2253 tinytpu_top_inst\.input_control_inst\.data_in_y_reg\[0\]
*2254 tinytpu_top_inst\.input_control_inst\.data_in_y_reg\[1\]
*2255 tinytpu_top_inst\.input_control_inst\.data_in_y_reg\[2\]
*2256 tinytpu_top_inst\.input_control_inst\.data_in_y_reg\[3\]
*2257 tinytpu_top_inst\.input_control_inst\.data_in_y_reg\[4\]
*2258 tinytpu_top_inst\.input_control_inst\.data_in_y_reg\[5\]
*2259 tinytpu_top_inst\.input_control_inst\.data_in_y_reg\[6\]
*2260 tinytpu_top_inst\.input_control_inst\.data_in_y_reg\[7\]